LAMMPS (28 Mar 2023 - Update 1)
# 3D LAMMPS simulation for binary mixtures of ultrasoft repulsive particles

# Initialization
units lj
dimension 3
atom_style atomic
pair_style gem 4
boundary p p p

variable n1 equal 350
variable n2 equal 6650

# System definition
region box block 0 10 0 10 0 10
create_box 2 box
Created orthogonal box = (0 0 0) to (10 10 10)
create_atoms 1 random 350 123456 box
Created 350 atoms
create_atoms 2 random 6650 234242 box
Created 6650 atoms

# Simulation settings
mass 1 1
mass 2 1
pair_coeff 1 1 1.0 1.0 2
pair_coeff 2 2 1.0 1.0 4
pair_coeff 1 2 1.0 1.07 3

# Energy minimization
thermo 10
minimize 1.0e-4 1.0e-6 1000 10000
Generated 0 of 1 mixed pair_coeff terms from geometric mixing rule
Step          Temp          E_pair         E_mol          TotEng         Press
0   0              13.951833      0              13.951833      97.50473
Loop time of 3.22666 on 12 procs for 82 steps with 7000 atoms

Minimization stats:
  Stopping criterion = energy tolerance
  Energy initial, next-to-last, final =
  Force two-norm initial, final = 773.09882 31.872933
  Force max component initial, final = 25.255942 1.7744844
  Final line search alpha, max atom move = 0.032581984 0.057816224
  Iterations, force evaluations = 82 85

# Equilibration
fix nve all nve
fix langevin all langevin 1.0 1.0 0.1 332412
timestep 0.005
run 5000
Generated 0 of 1 mixed pair_coeff terms from geometric mixing rule
Step          Temp          E_pair         E_mol          TotEng         Press
82   0              9.416262       0              9.416262       82.563865
Averages over the last 251 of 502 rows, steps 2590 to 5082:
Temp E_pair E_mol TotEng Press
0.999994 11.4311 0 12.9309 92.1265
Loop time of 158.261 on 12 procs for 5000 steps with 7000 atoms

# Visualization
unfix nve
unfix langevin
thermo 50
variable kinetic_energy equal ke
variable potential_energy equal pe
variable pressure equal press
fix ave_time all ave/time 10 1 10 v_kinetic_energy v_potential_energy file energy3.dat
dump dump all atom 50 output3.lammpstrj

# Run
fix nve all nve
fix langevin all langevin 1.0 1.0 0.01 345678
timestep 0.005

compute myRDF all rdf 40 1 1 cutoff 4
fix myfix all ave/time 5 1 10000 c_myRDF[1] c_myRDF[2] c_myRDF[3] file case3oneone.txt mode vector

compute myRDF2 all rdf 40 1 2 cutoff 4
fix myfix2 all ave/time 5 1 10000 c_myRDF2[1] c_myRDF2[2] c_myRDF2[3] file case3onetwo.txt mode vector

compute myRDF3 all rdf 40 2 2 cutoff 4
fix myfix3 all ave/time 5 1 10000 c_myRDF3[1] c_myRDF3[2] c_myRDF3[3] file case3twotwo.txt mode vector

run 10000
Generated 0 of 1 mixed pair_coeff terms from geometric mixing rule
Step          Temp          E_pair         E_mol          TotEng         Press
5082   1.0120955      11.41674       0              12.934666      91.617927
Averages over the last 101 of 202 rows, steps 10100 to 15082:
Temp E_pair E_mol TotEng Press
0.999816 11.3622 0 12.8617 90.898
Loop time of 299.834 on 12 procs for 10000 steps with 7000 atoms
