LAMMPS (28 Mar 2023 - Update 1)
# 3D LAMMPS simulation for binary mixtures of ultrasoft repulsive particles
# Initialization
units lj
dimension 3
atom_style atomic
pair_style gem 4
boundary p p p

variable n1 equal 4950
variable n2 equal 550

# System definition
region box block 0 10 0 10 0 10
create_box 2 box
Created orthogonal box = (0 0 0) to (10 10 10)
create_atoms 1 random 4950 123456 box
Created 4950 atoms
create_atoms 2 random 550 234242 box
Created 550 atoms

# Simulation settings
mass 1 1
mass 2 1
pair_coeff 1 1 1.0 1.0 2
pair_coeff 2 2 1.0 1.0 4
pair_coeff 1 2 1.0 1.07 3

# Energy minimization
thermo 10
minimize 1.0e-4 1.0e-6 1000 10000
Generated 0 of 1 mixed pair_coeff terms from geometric mixing rule
Step          Temp          E_pair         E_mol          TotEng         Press
0   0              14.999154      0              14.999154      82.787297
Loop time of 1.21835 on 12 procs for 50 steps with 5500 atoms

Minimization stats:
  Stopping criterion = energy tolerance
  Energy initial, next-to-last, final =
  Force two-norm initial, final = 414.78233 15.729453
  Force max component initial, final = 17.415197 1.6607799
  Final line search alpha, max atom move = 0.057045745 0.094740426
  Iterations, force evaluations = 50 50

# Equilibration
fix nve all nve
fix langevin all langevin 1.0 1.0 0.1 332412
timestep 0.005
run 5000
Generated 0 of 1 mixed pair_coeff terms from geometric mixing rule
Step          Temp          E_pair         E_mol          TotEng         Press
50   0              14.243534      0              14.243534      82.096951
Averages over the last 251 of 501 rows, steps 2550 to 5050:
Temp E_pair E_mol TotEng Press
0.997827 14.6 0 16.0965 87.7944
Loop time of 103.896 on 12 procs for 5000 steps with 5500 atoms

# Visualization
unfix nve
unfix langevin
thermo 50
variable kinetic_energy equal ke
variable potential_energy equal pe
variable pressure equal press
fix ave_time all ave/time 10 1 10 v_kinetic_energy v_potential_energy file energy3.dat
dump dump all atom 50 output2.lammpstrj

# Run
fix nve all nve
fix langevin all langevin 1.0 1.0 0.01 345678
timestep 0.0000005
compute myRDF all rdf 40 1 1 cutoff 4
fix myfix all ave/time 5 1 10000 c_myRDF[1] c_myRDF[2] c_myRDF[3] file oneone_thr.txt mode vector
#first column is center bin, 2nd is g(r), 3rd is r
run 10000
Generated 0 of 1 mixed pair_coeff terms from geometric mixing rule
Step          Temp          E_pair         E_mol          TotEng         Press
5050   1.0139122      14.599524      0              16.120116      87.914256
Averages over the last 101 of 201 rows, steps 10050 to 15050:
Temp E_pair E_mol TotEng Press
1.00722 14.5996 0 16.1102 87.8769
Loop time of 183.143 on 12 procs for 10000 steps with 5500 atoms
